[General]
network = tsn_simulation.TsnSimulation
sim-time-limit = 20s
ned-path = .;tsn_simulation
debug-on-errors = true
print-undisposed = true
